<routes>
    <person depart="0.000000" id="p0" departPos="-30.000000" >
        <walk edges="beg end" arrivalPos="100.000000"/>
    </person>
    <person depart="0.000000" id="p1" departPos="-30.000000" >
        <walk edges="beg end" arrivalPos="100.000000"/>
    </person>
    <person depart="0.000000" id="p2" departPos="-30.000000" >
        <walk edges="beg end" arrivalPos="100.000000"/>
    </person>
    <person depart="0.000000" id="p3" departPos="-30.000000" >
        <walk edges="beg end" arrivalPos="100.000000"/>
    </person>
    <person depart="0.000000" id="p4" departPos="-30.000000" >
        <walk edges="beg end" arrivalPos="100.000000"/>
    </person>
    <person depart="0.000000" id="p5" departPos="-30.000000" >
        <walk edges="beg end" arrivalPos="100.000000"/>
    </person>
    <person depart="0.000000" id="p6" departPos="-30.000000" >
        <walk edges="beg end" arrivalPos="100.000000"/>
    </person>
    <person depart="0.000000" id="p7" departPos="-30.000000" >
        <walk edges="beg end" arrivalPos="100.000000"/>
    </person>
    <person depart="0.000000" id="p8" departPos="-30.000000" >
        <walk edges="beg end" arrivalPos="100.000000"/>
    </person>
    <person depart="0.000000" id="p9" departPos="-30.000000" >
        <walk edges="beg end" arrivalPos="100.000000"/>
    </person>
    <person depart="0.000000" id="p10" departPos="-30.000000" >
        <walk edges="beg end" arrivalPos="100.000000"/>
    </person>
    <person depart="0.000000" id="p11" departPos="-30.000000" >
        <walk edges="beg end" arrivalPos="100.000000"/>
    </person>
    <person depart="0.000000" id="p12" departPos="-30.000000" >
        <walk edges="beg end" arrivalPos="100.000000"/>
    </person>
    <person depart="0.000000" id="p13" departPos="-30.000000" >
        <walk edges="beg end" arrivalPos="100.000000"/>
    </person>
    <person depart="0.000000" id="p14" departPos="-30.000000" >
        <walk edges="beg end" arrivalPos="100.000000"/>
    </person>
    <person depart="0.000000" id="p15" departPos="-30.000000" >
        <walk edges="beg end" arrivalPos="100.000000"/>
    </person>
    <person depart="0.000000" id="p16" departPos="-30.000000" >
        <walk edges="beg end" arrivalPos="100.000000"/>
    </person>
    <person depart="0.000000" id="p17" departPos="-30.000000" >
        <walk edges="beg end" arrivalPos="100.000000"/>
    </person>
    <person depart="0.000000" id="p18" departPos="-30.000000" >
        <walk edges="beg end" arrivalPos="100.000000"/>
    </person>
    <person depart="0.000000" id="p19" departPos="-30.000000" >
        <walk edges="beg end" arrivalPos="100.000000"/>
    </person>
    <person depart="0.000000" id="p20" departPos="-30.000000" >
        <walk edges="beg end" arrivalPos="100.000000"/>
    </person>
    <person depart="0.000000" id="p21" departPos="-30.000000" >
        <walk edges="beg end" arrivalPos="100.000000"/>
    </person>
    <person depart="0.000000" id="p22" departPos="-30.000000" >
        <walk edges="beg end" arrivalPos="100.000000"/>
    </person>
    <person depart="0.000000" id="p23" departPos="-30.000000" >
        <walk edges="beg end" arrivalPos="100.000000"/>
    </person>
    <person depart="0.000000" id="p24" departPos="-30.000000" >
        <walk edges="beg end" arrivalPos="100.000000"/>
    </person>
    <person depart="0.000000" id="p25" departPos="-30.000000" >
        <walk edges="beg end" arrivalPos="100.000000"/>
    </person>
    <person depart="0.000000" id="p26" departPos="-30.000000" >
        <walk edges="beg end" arrivalPos="100.000000"/>
    </person>
    <person depart="0.000000" id="p27" departPos="-30.000000" >
        <walk edges="beg end" arrivalPos="100.000000"/>
    </person>
    <person depart="0.000000" id="p28" departPos="-30.000000" >
        <walk edges="beg end" arrivalPos="100.000000"/>
    </person>
    <person depart="0.000000" id="p29" departPos="-30.000000" >
        <walk edges="beg end" arrivalPos="100.000000"/>
    </person>
    <person depart="0.000000" id="p30" departPos="-30.000000" >
        <walk edges="beg end" arrivalPos="100.000000"/>
    </person>
    <person depart="0.000000" id="p31" departPos="-30.000000" >
        <walk edges="beg end" arrivalPos="100.000000"/>
    </person>
    <person depart="0.000000" id="p32" departPos="-30.000000" >
        <walk edges="beg end" arrivalPos="100.000000"/>
    </person>
    <person depart="0.000000" id="p33" departPos="-30.000000" >
        <walk edges="beg end" arrivalPos="100.000000"/>
    </person>
    <person depart="0.000000" id="p34" departPos="-30.000000" >
        <walk edges="beg end" arrivalPos="100.000000"/>
    </person>
    <person depart="0.000000" id="p35" departPos="-30.000000" >
        <walk edges="beg end" arrivalPos="100.000000"/>
    </person>
    <person depart="0.000000" id="p36" departPos="-30.000000" >
        <walk edges="beg end" arrivalPos="100.000000"/>
    </person>
    <person depart="0.000000" id="p37" departPos="-30.000000" >
        <walk edges="beg end" arrivalPos="100.000000"/>
    </person>
    <person depart="0.000000" id="p38" departPos="-30.000000" >
        <walk edges="beg end" arrivalPos="100.000000"/>
    </person>
    <person depart="0.000000" id="p39" departPos="-30.000000" >
        <walk edges="beg end" arrivalPos="100.000000"/>
    </person>
    <person depart="0.000000" id="p40" departPos="-30.000000" >
        <walk edges="beg end" arrivalPos="100.000000"/>
    </person>
    <person depart="0.000000" id="p41" departPos="-30.000000" >
        <walk edges="beg end" arrivalPos="100.000000"/>
    </person>
    <person depart="0.000000" id="p42" departPos="-30.000000" >
        <walk edges="beg end" arrivalPos="100.000000"/>
    </person>
    <person depart="0.000000" id="p43" departPos="-30.000000" >
        <walk edges="beg end" arrivalPos="100.000000"/>
    </person>
    <person depart="0.000000" id="p44" departPos="-30.000000" >
        <walk edges="beg end" arrivalPos="100.000000"/>
    </person>
    <person depart="0.000000" id="p45" departPos="-30.000000" >
        <walk edges="beg end" arrivalPos="100.000000"/>
    </person>
    <person depart="0.000000" id="p46" departPos="-30.000000" >
        <walk edges="beg end" arrivalPos="100.000000"/>
    </person>
    <person depart="0.000000" id="p47" departPos="-30.000000" >
        <walk edges="beg end" arrivalPos="100.000000"/>
    </person>
    <person depart="0.000000" id="p48" departPos="-30.000000" >
        <walk edges="beg end" arrivalPos="100.000000"/>
    </person>
    <person depart="0.000000" id="p49" departPos="-30.000000" >
        <walk edges="beg end" arrivalPos="100.000000"/>
    </person>
    <person depart="0.000000" id="p50" departPos="-30.000000" >
        <walk edges="beg end" arrivalPos="100.000000"/>
    </person>
    <person depart="0.000000" id="p51" departPos="-30.000000" >
        <walk edges="beg end" arrivalPos="100.000000"/>
    </person>
    <person depart="0.000000" id="p52" departPos="-30.000000" >
        <walk edges="beg end" arrivalPos="100.000000"/>
    </person>
    <person depart="0.000000" id="p53" departPos="-30.000000" >
        <walk edges="beg end" arrivalPos="100.000000"/>
    </person>
    <person depart="0.000000" id="p54" departPos="-30.000000" >
        <walk edges="beg end" arrivalPos="100.000000"/>
    </person>
    <person depart="0.000000" id="p55" departPos="-30.000000" >
        <walk edges="beg end" arrivalPos="100.000000"/>
    </person>
    <person depart="0.000000" id="p56" departPos="-30.000000" >
        <walk edges="beg end" arrivalPos="100.000000"/>
    </person>
    <person depart="0.000000" id="p57" departPos="-30.000000" >
        <walk edges="beg end" arrivalPos="100.000000"/>
    </person>
    <person depart="0.000000" id="p58" departPos="-30.000000" >
        <walk edges="beg end" arrivalPos="100.000000"/>
    </person>
    <person depart="0.000000" id="p59" departPos="-30.000000" >
        <walk edges="beg end" arrivalPos="100.000000"/>
    </person>
    <person depart="0.000000" id="p60" departPos="-30.000000" >
        <walk edges="beg end" arrivalPos="100.000000"/>
    </person>
    <person depart="0.000000" id="p61" departPos="-30.000000" >
        <walk edges="beg end" arrivalPos="100.000000"/>
    </person>
    <person depart="0.000000" id="p62" departPos="-30.000000" >
        <walk edges="beg end" arrivalPos="100.000000"/>
    </person>
    <person depart="0.000000" id="p63" departPos="-30.000000" >
        <walk edges="beg end" arrivalPos="100.000000"/>
    </person>
    <person depart="0.000000" id="p64" departPos="-30.000000" >
        <walk edges="beg end" arrivalPos="100.000000"/>
    </person>
    <person depart="0.000000" id="p65" departPos="-30.000000" >
        <walk edges="beg end" arrivalPos="100.000000"/>
    </person>
    <person depart="0.000000" id="p66" departPos="-30.000000" >
        <walk edges="beg end" arrivalPos="100.000000"/>
    </person>
    <person depart="0.000000" id="p67" departPos="-30.000000" >
        <walk edges="beg end" arrivalPos="100.000000"/>
    </person>
    <person depart="0.000000" id="p68" departPos="-30.000000" >
        <walk edges="beg end" arrivalPos="100.000000"/>
    </person>
    <person depart="0.000000" id="p69" departPos="-30.000000" >
        <walk edges="beg end" arrivalPos="100.000000"/>
    </person>
    <person depart="0.000000" id="p70" departPos="-30.000000" >
        <walk edges="beg end" arrivalPos="100.000000"/>
    </person>
    <person depart="0.000000" id="p71" departPos="-30.000000" >
        <walk edges="beg end" arrivalPos="100.000000"/>
    </person>
    <person depart="0.000000" id="p72" departPos="-30.000000" >
        <walk edges="beg end" arrivalPos="100.000000"/>
    </person>
    <person depart="0.000000" id="p73" departPos="-30.000000" >
        <walk edges="beg end" arrivalPos="100.000000"/>
    </person>
    <person depart="0.000000" id="p74" departPos="-30.000000" >
        <walk edges="beg end" arrivalPos="100.000000"/>
    </person>
    <person depart="0.000000" id="p75" departPos="-30.000000" >
        <walk edges="beg end" arrivalPos="100.000000"/>
    </person>
    <person depart="0.000000" id="p76" departPos="-30.000000" >
        <walk edges="beg end" arrivalPos="100.000000"/>
    </person>
    <person depart="0.000000" id="p77" departPos="-30.000000" >
        <walk edges="beg end" arrivalPos="100.000000"/>
    </person>
    <person depart="0.000000" id="p78" departPos="-30.000000" >
        <walk edges="beg end" arrivalPos="100.000000"/>
    </person>
    <person depart="0.000000" id="p79" departPos="-30.000000" >
        <walk edges="beg end" arrivalPos="100.000000"/>
    </person>
    <person depart="0.000000" id="p80" departPos="-30.000000" >
        <walk edges="beg end" arrivalPos="100.000000"/>
    </person>
    <person depart="0.000000" id="p81" departPos="-30.000000" >
        <walk edges="beg end" arrivalPos="100.000000"/>
    </person>
    <person depart="0.000000" id="p82" departPos="-30.000000" >
        <walk edges="beg end" arrivalPos="100.000000"/>
    </person>
    <person depart="0.000000" id="p83" departPos="-30.000000" >
        <walk edges="beg end" arrivalPos="100.000000"/>
    </person>
    <person depart="0.000000" id="p84" departPos="-30.000000" >
        <walk edges="beg end" arrivalPos="100.000000"/>
    </person>
    <person depart="0.000000" id="p85" departPos="-30.000000" >
        <walk edges="beg end" arrivalPos="100.000000"/>
    </person>
    <person depart="0.000000" id="p86" departPos="-30.000000" >
        <walk edges="beg end" arrivalPos="100.000000"/>
    </person>
    <person depart="0.000000" id="p87" departPos="-30.000000" >
        <walk edges="beg end" arrivalPos="100.000000"/>
    </person>
    <person depart="0.000000" id="p88" departPos="-30.000000" >
        <walk edges="beg end" arrivalPos="100.000000"/>
    </person>
    <person depart="0.000000" id="p89" departPos="-30.000000" >
        <walk edges="beg end" arrivalPos="100.000000"/>
    </person>
    <person depart="0.000000" id="p90" departPos="-30.000000" >
        <walk edges="beg end" arrivalPos="100.000000"/>
    </person>
    <person depart="0.000000" id="p91" departPos="-30.000000" >
        <walk edges="beg end" arrivalPos="100.000000"/>
    </person>
    <person depart="0.000000" id="p92" departPos="-30.000000" >
        <walk edges="beg end" arrivalPos="100.000000"/>
    </person>
    <person depart="0.000000" id="p93" departPos="-30.000000" >
        <walk edges="beg end" arrivalPos="100.000000"/>
    </person>
    <person depart="0.000000" id="p94" departPos="-30.000000" >
        <walk edges="beg end" arrivalPos="100.000000"/>
    </person>
    <person depart="0.000000" id="p95" departPos="-30.000000" >
        <walk edges="beg end" arrivalPos="100.000000"/>
    </person>
    <person depart="0.000000" id="p96" departPos="-30.000000" >
        <walk edges="beg end" arrivalPos="100.000000"/>
    </person>
    <person depart="0.000000" id="p97" departPos="-30.000000" >
        <walk edges="beg end" arrivalPos="100.000000"/>
    </person>
    <person depart="0.000000" id="p98" departPos="-30.000000" >
        <walk edges="beg end" arrivalPos="100.000000"/>
    </person>
    <person depart="0.000000" id="p99" departPos="-30.000000" >
        <walk edges="beg end" arrivalPos="100.000000"/>
    </person>
</routes>
